/*--------------------------------*- C++ -*----------------------------------*\
  =========                 |
  \\      /  F ield         | OpenFOAM: The Open Source CFD Toolbox
   \\    /   O peration     | Website:  https://openfoam.org
    \\  /    A nd           | Version:  9
     \\/     M anipulation  |
\*---------------------------------------------------------------------------*/
FoamFile
{
    format      ascii;
    class       volVectorField;
    object      U;
}
// * * * * * * * * * * * * * * * * * * * * * * * * * * * * * * * * * * * * * //

dimensions      [0 1 -1 0 0 0 0];

internalField   uniform (-1 0 0);

boundaryField
{
    inlet_artery
    {
        type            fixedValue;
        value 		uniform (0 0 0);
    }

    inlet_pores
    {
        type            fixedValue;
        value 		uniform (0 -0.05 0);
    }

    "wallArtery|catheter_wall"
    {
        type            noSlip;
    }


    outlet_artery
    {
        type            inletOutlet;
        inletValue      uniform (0 0 0);
        value           $internalField;
    }
}


// ************************************************************************* //
